SOLVER= EULER
KIND_TURB_MODEL= SA_NEG
MATH_PROBLEM= DIRECT
SYSTEM_MEASUREMENTS= SI
ITER= 10
MACH_NUMBER= 0.4
AOA= 0.0
SIDESLIP_ANGLE= 0.000000
INIT_OPTION= REYNOLDS
FREESTREAM_PRESSURE= 101325.0
FREESTREAM_TEMPERATURE= 288.15
REYNOLDS_NUMBER= 0.000000e+00
FREESTREAM_VELOCITY= (1.0, 0.0, 0.0)
FREESTREAM_VISCOSITY= 1.853E-5
REF_DIMENSIONALIZATION= DIMENSIONAL
REF_ORIGIN_MOMENT_X= 0.00
REF_ORIGIN_MOMENT_Y= 0.00
REF_ORIGIN_MOMENT_Z= 0.00
REF_LENGTH= 1.00
REF_AREA= 1.00
MARKER_EULER= ( BC_5, BC_2 )
MARKER_HEATFLUX= ( NONE )
MARKER_ISOTHERMAL= ( NONE )
MARKER_FAR= ( NONE )
MARKER_SYM= ( NONE )
MARKER_INTERNAL= ( NONE )
MARKER_INLET= (  BC_4, 297.370800, 113134.627936, 1.000000, 0.000000, 0.000000 )
MARKER_OUTLET= (  BC_3, 101325.000000 )
MARKER_PLOTTING= ( BC_5, BC_2 )
MARKER_MONITORING= ( BC_5 )
CFL_NUMBER= 10.0
MGLEVEL= 2
CONV_NUM_METHOD_FLOW= ROE
SCREEN_OUTPUT= (TIME_ITER, OUTER_ITER, INNER_ITER, CUR_TIME, TIME_STEP, WALL_TIME, RMS_DENSITY, RMS_MOMENTUM-X, RMS_MOMENTUM-Y, RMS_ENERGY, EFFICIENCY)
HISTORY_OUTPUT= ITER, TIME_DOMAIN, WALL_TIME, RMS_RES, AERO_COEFF
WRT_FORCES_BREAKDOWN= YES
MESH_FILENAME= ../delaundo/delaundoMesh.su2
MESH_FORMAT= SU2
MESH_OUT_FILENAME= delaundoMesh.su2
OUTPUT_FILES= (RESTART, SURFACE_CSV, TECPLOT, SURFACE_TECPLOT)
BREAKDOWN_FILENAME= forces_breakdown_delaundoMesh.dat
RESTART_FILENAME= restart_flow_delaundoMesh.dat
VOLUME_FILENAME= flow_delaundoMesh
SURFACE_FILENAME= surface_flow_delaundoMesh
DV_VALUE_NEW= 0
DV_VALUE_OLD= 0
OPT_ITERATIONS= 100
OPT_ACCURACY= 1e-10
OPT_RELAX_FACTOR= 1.0
OPT_GRADIENT_FACTOR= 1.0
OPT_BOUND_UPPER= 10000000000.0
OPT_BOUND_LOWER= -10000000000.0
OPT_COMBINE_OBJECTIVE= NO
OPT_CONSTRAINT= NONE
VALUE_OBJFUNC_FILENAME= of_eval.dat
GRAD_OBJFUNC_FILENAME= of_grad.dat
TARGET_CL= 0.0
MULTIPOINT_WEIGHT= (1.0)
MULTIPOINT_MACH_NUMBER= (0.4)
MULTIPOINT_AOA= (0.0)
MULTIPOINT_SIDESLIP_ANGLE= (0.000000)
MULTIPOINT_REYNOLDS_NUMBER= (0.000000e+00)
MULTIPOINT_TARGET_CL= (0.0)
MULTIPOINT_FREESTREAM_PRESSURE= (101325.0)
MULTIPOINT_FREESTREAM_TEMPERATURE= (288.15)
MULTIPOINT_OUTLET_VALUE= ( 101325.000000 )
MULTIPOINT_MESH_FILENAME= (../delaundo/delaundoMesh.su2)
OBJECTIVE_FUNCTION= DRAG
DV_KIND= FFD_SETTING
DV_PARAM= ( 1, 0.5) 
DEFINITION_DV= ( 30 , 1.0 | WING  | 0.0 , 0.05  )
NUMBER_PART= 1
DV_VALUE= 0
